Version 4.1
SHEET 1 2048 1040
WIRE 1056 -224 992 -224
WIRE 1200 -224 1056 -224
WIRE 1600 -224 1200 -224
WIRE 1056 -192 1056 -224
WIRE 112 -144 32 -144
WIRE 368 -144 176 -144
WIRE 368 -112 320 -112
WIRE 1200 -112 1200 -224
WIRE 1232 -112 1200 -112
WIRE 1600 -112 1600 -224
WIRE 1600 -112 1520 -112
WIRE -368 -80 -368 -96
WIRE -256 -80 -256 -96
WIRE 1920 -80 1584 -80
WIRE 704 -64 544 -64
WIRE 752 -64 704 -64
WIRE 704 -48 704 -64
WIRE 1232 -32 928 -32
WIRE 1584 -32 1584 -80
WIRE 1584 -32 1520 -32
WIRE 1600 -32 1584 -32
WIRE 1808 -32 1680 -32
WIRE 320 -16 320 -32
WIRE 368 -16 320 -16
WIRE -368 16 -368 0
WIRE -256 16 -256 0
WIRE -224 16 -256 16
WIRE 112 16 32 16
WIRE 368 16 176 16
WIRE 480 48 480 0
WIRE 560 48 480 48
WIRE 704 48 704 32
WIRE 704 48 624 48
WIRE 928 48 928 -32
WIRE 976 48 928 48
WIRE 1232 48 1056 48
WIRE 1600 48 1520 48
WIRE 1808 48 1808 -32
WIRE 1808 48 1680 48
WIRE 928 128 928 48
WIRE 976 128 928 128
WIRE 1152 128 1056 128
WIRE 1232 128 1152 128
WIRE 1808 128 1808 48
WIRE 1808 128 1520 128
WIRE 704 144 704 48
WIRE 704 144 624 144
WIRE 480 160 480 48
WIRE 560 160 480 160
WIRE 928 160 928 128
WIRE 688 176 624 176
WIRE 1232 208 1120 208
WIRE 1808 256 1808 128
WIRE 928 288 928 240
WIRE 928 288 704 288
WIRE 1232 288 1200 288
WIRE 1568 288 1520 288
WIRE 1200 368 1200 288
WIRE 1568 368 1568 288
WIRE 1568 368 1200 368
WIRE 1200 400 1200 368
WIRE -112 528 -112 480
WIRE 16 528 -112 528
WIRE 112 544 80 544
WIRE 256 544 112 544
WIRE 1152 544 1152 128
WIRE 1808 544 1808 336
WIRE 1808 544 1152 544
WIRE -112 560 -112 528
WIRE 16 560 -16 560
WIRE -16 640 -16 560
WIRE 112 640 112 544
WIRE 112 640 -16 640
WIRE -112 656 -112 640
FLAG -368 -96 5V
FLAG -368 16 0
FLAG -256 -96 V+
FLAG -496 -16 -5V
FLAG -496 -96 0
FLAG -496 176 0
FLAG -496 96 3.3V
FLAG -224 16 0
FLAG 400 -160 5V
FLAG 32 -144 V+
FLAG 32 16 V-
FLAG 752 -64 output2
FLAG 176 -64 0
FLAG 176 96 0
FLAG 400 32 -5V
FLAG 688 176 ADCref
FLAG 608 128 5V
FLAG 608 192 -5V
FLAG -112 656 0
FLAG -112 400 3.3V
FLAG 48 576 3.3V
FLAG 48 512 0
FLAG 256 544 ADCref
FLAG 576 192 5V
FLAG 992 -224 3.3V
FLAG 1056 -128 0
FLAG 1120 208 ADCref
FLAG 1200 400 0
FLAG 1920 -80 OUTPUT3
FLAG 704 288 output2
FLAG -256 16 V-
SYMBOL voltage -256 -96 R0
WINDOW 123 24 44 Left 2
WINDOW 39 0 0 Left 0
WINDOW 3 24 72 Left 2
SYMATTR Value2 AC 1
SYMATTR Value SINE(1.65 0.05 1000)
SYMATTR InstName V1
SYMBOL voltage -368 -96 R0
WINDOW 123 0 0 Left 0
WINDOW 39 0 0 Left 0
SYMATTR InstName V2
SYMATTR Value 5
SYMBOL voltage -496 -112 R0
WINDOW 123 0 0 Left 0
WINDOW 39 0 0 Left 0
SYMATTR InstName V3
SYMATTR Value 5
SYMBOL voltage -496 80 R0
WINDOW 123 0 0 Left 0
WINDOW 39 0 0 Left 0
SYMATTR InstName V4
SYMATTR Value 3.3
SYMBOL res 304 -128 R0
SYMATTR InstName R13
SYMATTR Value 12.1
SYMBOL cap 560 32 M90
WINDOW 0 0 32 VBottom 2
WINDOW 3 32 32 VTop 2
SYMATTR InstName C14
SYMATTR Value 2.2µ
SYMBOL res 688 -64 R0
SYMATTR InstName R16
SYMATTR Value 22k
SYMBOL OpAmps\\AD8601 48 608 M180
SYMATTR InstName U1
SYMBOL res -128 384 R0
SYMATTR InstName R1
SYMATTR Value 10k
SYMBOL res -128 544 R0
SYMATTR InstName R2
SYMATTR Value 10k
SYMBOL OpAmps\\ADA4898 592 176 M0
SYMATTR InstName U2
SYMBOL FilterProducts\\LTC1563-2 1376 224 R0
SYMATTR InstName U3
SYMBOL cap 1040 -192 R0
SYMATTR InstName C1
SYMATTR Value 0.1µ
SYMBOL res 1072 32 R90
WINDOW 0 0 56 VBottom 2
WINDOW 3 32 56 VTop 2
SYMATTR InstName R3
SYMATTR Value 10k
SYMBOL res 1072 112 R90
WINDOW 0 0 56 VBottom 2
WINDOW 3 32 56 VTop 2
SYMATTR InstName R4
SYMATTR Value 10k
SYMBOL res 944 256 R180
WINDOW 0 36 76 Left 2
WINDOW 3 36 40 Left 2
SYMATTR InstName R5
SYMATTR Value 10k
SYMBOL res 1792 240 R0
SYMATTR InstName R6
SYMATTR Value 10k
SYMBOL res 1696 -48 R90
WINDOW 0 0 56 VBottom 2
WINDOW 3 32 56 VTop 2
SYMATTR InstName R7
SYMATTR Value 10k
SYMBOL res 1696 32 R90
WINDOW 0 0 56 VBottom 2
WINDOW 3 32 56 VTop 2
SYMATTR InstName R8
SYMATTR Value 10k
SYMBOL OpAmps\\AD8429 400 -64 R0
SYMATTR InstName U4
SYMBOL cap 112 -128 R270
WINDOW 0 32 32 VTop 2
WINDOW 3 0 32 VBottom 2
SYMATTR InstName C2
SYMATTR Value 1µ
SYMBOL cap 112 32 R270
WINDOW 0 32 32 VTop 2
WINDOW 3 0 32 VBottom 2
SYMATTR InstName C3
SYMATTR Value 1µ
SYMBOL res 160 -160 R0
SYMATTR InstName R9
SYMATTR Value 32k
SYMBOL res 160 0 R0
SYMATTR InstName R10
SYMATTR Value 32k
TEXT -688 448 Left 2 !;.op\n;.noise V(OUTPUT3) V1 dec 100 1 1MEG
TEXT -656 568 Left 2 !.ac dec 10 1 1MEG
TEXT 88 136 Left 2 ;Passive Low Pass
TEXT 536 -160 Left 2 ;INA and DC servo
TEXT 816 464 Left 2 ;.tran 0.05
